ozone 1
     RDKit          3D

  3  2  0  0  0  0  0  0  0  0999 V2000
   -1.0975   -0.2267    0.0000 O   0  0  0  0  0  0  0  0  0  0  0  0
   -0.0527    0.4307    0.0000 O   0  0  0  0  0  3  0  0  0  0  0  0
    1.1501   -0.2040    0.0000 O   0  0  0  0  0  1  0  0  0  0  0  0
  1  2  2  0
  2  3  1  0
M  CHG  2   2   1   3  -1
M  END
>  <Energy>  (1) 
2.2244298865999251e-13

>  <Real charge>  (1) 
0

>  <Mult>  (1) 
1

>  <SMILES>  (1) 
O=[O+][O-]

$$$$
