mol_3 94
     RDKit          3D

 10  9  0  0  0  0  0  0  0  0999 V2000
   -1.1412    0.2745   -0.3382 C   0  0  0  0  0  0  0  0  0  0  0  0
    0.0665   -0.5494    0.0708 C   0  0  0  0  0  0  0  0  0  0  0  0
    1.6105    0.4612    0.1072 P   0  0  0  0  0  0  0  0  0  0  0  0
   -1.3195    1.0997    0.3602 H   0  0  0  0  0  0  0  0  0  0  0  0
   -2.0381   -0.3533   -0.3509 H   0  0  0  0  0  0  0  0  0  0  0  0
   -1.0161    0.7008   -1.3397 H   0  0  0  0  0  0  0  0  0  0  0  0
    0.2015   -1.3785   -0.6313 H   0  0  0  0  0  0  0  0  0  0  0  0
   -0.1011   -0.9813    1.0629 H   0  0  0  0  0  0  0  0  0  0  0  0
    1.3080    1.2119    1.2680 H   0  0  0  0  0  0  0  0  0  0  0  0
    2.4295   -0.4855    0.7670 H   0  0  0  0  0  0  0  0  0  0  0  0
  1  2  1  0
  2  3  1  0
  1  4  1  0
  1  5  1  0
  1  6  1  0
  2  7  1  0
  2  8  1  0
  3  9  1  0
  3 10  1  0
M  END
>  <Energy>  (1) 
-1.1486480918984896

>  <Real charge>  (1) 
0

>  <Mult>  (1) 
1

$$$$
