chlorosulfanyl thiohypochlorite 1
     RDKit          3D

  4  3  0  0  0  0  0  0  0  0999 V2000
    1.8833    0.7654   -0.0730 Cl  0  0  0  0  0  0  0  0  0  0  0  0
    0.7537   -0.7398    0.6929 S   0  0  0  0  0  0  0  0  0  0  0  0
   -0.7332   -0.7351   -0.7194 S   0  0  0  0  0  0  0  0  0  0  0  0
   -1.9039    0.7095    0.0995 Cl  0  0  0  0  0  0  0  0  0  0  0  0
  1  2  1  0
  2  3  1  0
  3  4  1  0
M  END
>  <Energy>  (1) 
-8.504213586468671

>  <Real charge>  (1) 
0

>  <Mult>  (1) 
1

>  <SMILES>  (1) 
ClSSCl

$$$$
